1

                    Execution started at 20150914.064036         



                    ---------------------------------------
                                     SWAN
                    SIMULATION OF WAVES IN NEAR SHORE AREAS
                             VERSION NUMBER 41.01               
                    ---------------------------------------


    
 PROJECT  'COB'  ''
    
 'SIMULAÇÃO ONDAS'
    
 ''
    
 ''
    
 
    
 SET DEPMIN 0.7 INRHOG 1 NAUTICAL
    
 
    
 MODE NONSTATIONARY TWODIMENSIONAL
    
 COORDINATES SPHERICAL CCM
    
 
    
 &**********COMPUTATIONAL GRID**********&
 CGRID REG -43.3153 -23.0675 0 0.286 0.414 349 463 CIRCLE 32 0.04 1.2 29
 Resolution in sigma-space: df/f =  0.1244
    
 
    
 &***BATHYMETRY GRID***&
 INP BOT REG -43.3153 -23.0675 0 349 463 0.00082 0.00089 EXC 0
    
 READinp BOT 1 '/home/rafael/Documentos/lamce/simulacoes_swan/bat_bg/bat_100_bg.prn' 4 0 FREE  &****LEITURA DO ARQUIVO DE
 ** Warning          : Point removed from computational grid
Point with index (   335,   104) was removed from computational grid because it is an isolated wet point or is part of a 1D configuration or 1D connection.
 ** Warning          : Point removed from computational grid
Point with index (   220,   145) was removed from computational grid because it is an isolated wet point or is part of a 1D configuration or 1D connection.
 ** Warning          : Point removed from computational grid
Point with index (   222,   152) was removed from computational grid because it is an isolated wet point or is part of a 1D configuration or 1D connection.
 ** Warning          : Point removed from computational grid
Point with index (   223,   153) was removed from computational grid because it is an isolated wet point or is part of a 1D configuration or 1D connection.
 ** Warning          : Point removed from computational grid
Point with index (   231,   148) was removed from computational grid because it is an isolated wet point or is part of a 1D configuration or 1D connection.
 ** Warning          : Point removed from computational grid
Point with index (   244,   170) was removed from computational grid because it is an isolated wet point or is part of a 1D configuration or 1D connection.
 ** Warning          : Point removed from computational grid
Point with index (   237,   170) was removed from computational grid because it is an isolated wet point or is part of a 1D configuration or 1D connection.
 ** Warning          : Point removed from computational grid
Point with index (    22,    59) was removed from computational grid, because it is part of a 1D configuration or 1D connection.
 ** Warning          : Point removed from computational grid
Point with index (    22,    60) was removed from computational grid, because it is part of a 1D configuration or 1D connection.
 ** Warning          : Point removed from computational grid
Point with index (    23,    61) was removed from computational grid, because it is part of a 1D configuration or 1D connection.
 ** Warning          : Point removed from computational grid
Point with index (    32,    59) was removed from computational grid, because it is part of a 1D configuration or 1D connection.
 ** Warning          : Point removed from computational grid
Point with index (    48,   295) was removed from computational grid because it is an isolated wet point or is part of a 1D configuration or 1D connection.
 ** Warning          : Point removed from computational grid
Point with index (   104,   250) was removed from computational grid because it is an isolated wet point or is part of a 1D configuration or 1D connection.
 ** Warning          : Point removed from computational grid
Point with index (   101,   252) was removed from computational grid because it is an isolated wet point or is part of a 1D configuration or 1D connection.
 ** Warning          : Point removed from computational grid
Point with index (   115,   233) was removed from computational grid because it is an isolated wet point or is part of a 1D configuration or 1D connection.
 ** Warning          : Point removed from computational grid
Point with index (   108,   229) was removed from computational grid because it is an isolated wet point or is part of a 1D configuration or 1D connection.
 ** Warning          : Point removed from computational grid
Point with index (   109,   228) was removed from computational grid because it is an isolated wet point or is part of a 1D configuration or 1D connection.
 ** Warning          : Point removed from computational grid
Point with index (   150,   192) was removed from computational grid because it is an isolated wet point or is part of a 1D configuration or 1D connection.
 ** Warning          : Point removed from computational grid
Point with index (   163,   166) was removed from computational grid because it is an isolated wet point or is part of a 1D configuration or 1D connection.
 ** Warning          : Point removed from computational grid
Point with index (    48,   297) was removed from computational grid, because it is part of a 1D configuration or 1D connection.
 ** Warning          : Point removed from computational grid
Point with index (    48,   298) was removed from computational grid, because it is part of a 1D configuration or 1D connection.
 ** Warning          : Point removed from computational grid
Point with index (    52,   325) was removed from computational grid, because it is part of a 1D configuration or 1D connection.
 ** Warning          : Point removed from computational grid
Point with index (    53,   328) was removed from computational grid, because it is part of a 1D configuration or 1D connection.
 ** Warning          : Point removed from computational grid
Point with index (    62,   339) was removed from computational grid, because it is part of a 1D configuration or 1D connection.
 ** Warning          : Point removed from computational grid
Point with index (    64,   341) was removed from computational grid, because it is part of a 1D configuration or 1D connection.
 ** Warning          : Point removed from computational grid
Point with index (    97,   313) was removed from computational grid because it is an isolated wet point or is part of a 1D configuration or 1D connection.
 ** Warning          : Point removed from computational grid
Point with index (   153,   295) was removed from computational grid because it is an isolated wet point or is part of a 1D configuration or 1D connection.
 ** Warning          : Point removed from computational grid
Point with index (    83,   246) was removed from computational grid, because it is part of a 1D configuration or 1D connection.
 ** Warning          : Point removed from computational grid
Point with index (    84,   244) was removed from computational grid, because it is part of a 1D configuration or 1D connection.
 ** Warning          : Point removed from computational grid
Point with index (    84,   245) was removed from computational grid, because it is part of a 1D configuration or 1D connection.
 ** Warning          : Point removed from computational grid
Point with index (    85,   243) was removed from computational grid, because it is part of a 1D configuration or 1D connection.
 ** Warning          : Point removed from computational grid
Point with index (    85,   244) was removed from computational grid, because it is part of a 1D configuration or 1D connection.
 ** Warning          : Point removed from computational grid
Point with index (    86,   239) was removed from computational grid, because it is part of a 1D configuration or 1D connection.
 ** Warning          : Point removed from computational grid
Point with index (    86,   240) was removed from computational grid, because it is part of a 1D configuration or 1D connection.
 ** Warning          : Point removed from computational grid
Point with index (    89,   229) was removed from computational grid, because it is part of a 1D configuration or 1D connection.
 ** Warning          : Point removed from computational grid
Point with index (    90,   228) was removed from computational grid, because it is part of a 1D configuration or 1D connection.
 ** Warning          : Point removed from computational grid
Point with index (    91,   228) was removed from computational grid, because it is part of a 1D configuration or 1D connection.
 ** Warning          : Point removed from computational grid
Point with index (    92,   226) was removed from computational grid, because it is part of a 1D configuration or 1D connection.
 ** Warning          : Point removed from computational grid
Point with index (    92,   227) was removed from computational grid, because it is part of a 1D configuration or 1D connection.
 ** Warning          : Point removed from computational grid
Point with index (    92,   228) was removed from computational grid, because it is part of a 1D configuration or 1D connection.
 ** Warning          : Point removed from computational grid
Point with index (    93,   225) was removed from computational grid, because it is part of a 1D configuration or 1D connection.
 ** Warning          : Point removed from computational grid
Point with index (    93,   226) was removed from computational grid, because it is part of a 1D configuration or 1D connection.
 ** Warning          : Point removed from computational grid
Point with index (    94,   256) was removed from computational grid, because it is part of a 1D configuration or 1D connection.
 ** Warning          : Point removed from computational grid
Point with index (    95,   223) was removed from computational grid, because it is part of a 1D configuration or 1D connection.
 ** Warning          : Point removed from computational grid
Point with index (    96,   223) was removed from computational grid, because it is part of a 1D configuration or 1D connection.
 ** Warning          : Point removed from computational grid
Point with index (    97,   223) was removed from computational grid, because it is part of a 1D configuration or 1D connection.
 ** Warning          : Point removed from computational grid
Point with index (   100,   216) was removed from computational grid, because it is part of a 1D configuration or 1D connection.
 ** Warning          : Point removed from computational grid
Point with index (   100,   222) was removed from computational grid, because it is part of a 1D configuration or 1D connection.
 ** Warning          : Point removed from computational grid
Point with index (   105,   222) was removed from computational grid because it is an isolated wet point or is part of a 1D configuration or 1D connection.
 ** Warning          : Point removed from computational grid
Point with index (   101,   221) was removed from computational grid, because it is part of a 1D configuration or 1D connection.
 ** Warning          : Point removed from computational grid
Point with index (   101,   222) was removed from computational grid, because it is part of a 1D configuration or 1D connection.
 ** Warning          : Point removed from computational grid
Point with index (   124,   216) was removed from computational grid, because it is part of a 1D configuration or 1D connection.
 ** Warning          : Point removed from computational grid
Point with index (   138,    88) was removed from computational grid, because it is part of a 1D configuration or 1D connection.
 ** Warning          : Point removed from computational grid
Point with index (   140,    88) was removed from computational grid, because it is part of a 1D configuration or 1D connection.
 ** Warning          : Point removed from computational grid
Point with index (   169,   125) was removed from computational grid because it is an isolated wet point or is part of a 1D configuration or 1D connection.
 ** Warning          : Point removed from computational grid
Point with index (   171,   123) was removed from computational grid because it is an isolated wet point or is part of a 1D configuration or 1D connection.
 ** Warning          : Point removed from computational grid
Point with index (   152,   192) was removed from computational grid, because it is part of a 1D configuration or 1D connection.
 ** Warning          : Point removed from computational grid
Point with index (   161,   150) was removed from computational grid, because it is part of a 1D configuration or 1D connection.
 ** Warning          : Point removed from computational grid
Point with index (   167,   169) was removed from computational grid, because it is part of a 1D configuration or 1D connection.
 ** Warning          : Point removed from computational grid
Point with index (   172,   173) was removed from computational grid, because it is part of a 1D configuration or 1D connection.
 ** Warning          : Point removed from computational grid
Point with index (   176,   139) was removed from computational grid, because it is part of a 1D configuration or 1D connection.
 ** Warning          : Point removed from computational grid
Point with index (   202,   220) was removed from computational grid, because it is part of a 1D configuration or 1D connection.
 ** Warning          : Point removed from computational grid
Point with index (   203,   220) was removed from computational grid, because it is part of a 1D configuration or 1D connection.
 ** Warning          : Point removed from computational grid
Point with index (   205,   204) was removed from computational grid, because it is part of a 1D configuration or 1D connection.
 ** Warning          : Point removed from computational grid
Point with index (   206,   177) was removed from computational grid, because it is part of a 1D configuration or 1D connection.
 ** Warning          : Point removed from computational grid
Point with index (   207,   201) was removed from computational grid, because it is part of a 1D configuration or 1D connection.
 ** Warning          : Point removed from computational grid
Point with index (   211,   196) was removed from computational grid, because it is part of a 1D configuration or 1D connection.
 ** Warning          : Point removed from computational grid
Point with index (   214,   156) was removed from computational grid, because it is part of a 1D configuration or 1D connection.
 ** Warning          : Point removed from computational grid
Point with index (   214,   212) was removed from computational grid, because it is part of a 1D configuration or 1D connection.
 ** Warning          : Point removed from computational grid
Point with index (   214,   216) was removed from computational grid, because it is part of a 1D configuration or 1D connection.
 ** Warning          : Point removed from computational grid
Point with index (   215,   212) was removed from computational grid, because it is part of a 1D configuration or 1D connection.
 ** Warning          : Point removed from computational grid
Point with index (   215,   213) was removed from computational grid, because it is part of a 1D configuration or 1D connection.
 ** Warning          : Point removed from computational grid
Point with index (   215,   216) was removed from computational grid, because it is part of a 1D configuration or 1D connection.
 ** Warning          : Point removed from computational grid
Point with index (   217,   215) was removed from computational grid, because it is part of a 1D configuration or 1D connection.
 ** Warning          : Point removed from computational grid
Point with index (   218,   215) was removed from computational grid, because it is part of a 1D configuration or 1D connection.
 ** Warning          : Point removed from computational grid
Point with index (   219,   215) was removed from computational grid, because it is part of a 1D configuration or 1D connection.
 ** Warning          : Point removed from computational grid
Point with index (   220,   215) was removed from computational grid, because it is part of a 1D configuration or 1D connection.
 ** Warning          : Point removed from computational grid
Point with index (   222,   213) was removed from computational grid, because it is part of a 1D configuration or 1D connection.
 ** Warning          : Point removed from computational grid
Point with index (   245,   259) was removed from computational grid because it is an isolated wet point or is part of a 1D configuration or 1D connection.
 ** Warning          : Point removed from computational grid
Point with index (   265,   299) was removed from computational grid because it is an isolated wet point or is part of a 1D configuration or 1D connection.
 ** Warning          : Point removed from computational grid
Point with index (   226,   215) was removed from computational grid, because it is part of a 1D configuration or 1D connection.
 ** Warning          : Point removed from computational grid
Point with index (   228,   218) was removed from computational grid because it is an isolated wet point or is part of a 1D configuration or 1D connection.
 ** Warning          : Point removed from computational grid
Point with index (   226,   223) was removed from computational grid, because it is part of a 1D configuration or 1D connection.
 ** Warning          : Point removed from computational grid
Point with index (   227,   129) was removed from computational grid, because it is part of a 1D configuration or 1D connection.
 ** Warning          : Point removed from computational grid
Point with index (   227,   216) was removed from computational grid, because it is part of a 1D configuration or 1D connection.
 ** Warning          : Point removed from computational grid
Point with index (   227,   220) was removed from computational grid, because it is part of a 1D configuration or 1D connection.
 ** Warning          : Point removed from computational grid
Point with index (   227,   221) was removed from computational grid, because it is part of a 1D configuration or 1D connection.
 ** Warning          : Point removed from computational grid
Point with index (   227,   222) was removed from computational grid, because it is part of a 1D configuration or 1D connection.
 ** Warning          : Point removed from computational grid
Point with index (   227,   223) was removed from computational grid, because it is part of a 1D configuration or 1D connection.
 ** Warning          : Point removed from computational grid
Point with index (   229,   225) was removed from computational grid, because it is part of a 1D configuration or 1D connection.
 ** Warning          : Point removed from computational grid
Point with index (   231,   147) was removed from computational grid, because it is part of a 1D configuration or 1D connection.
 ** Warning          : Point removed from computational grid
Point with index (   231,   228) was removed from computational grid, because it is part of a 1D configuration or 1D connection.
 ** Warning          : Point removed from computational grid
Point with index (   236,   352) was removed from computational grid because it is an isolated wet point or is part of a 1D configuration or 1D connection.
 ** Warning          : Point removed from computational grid
Point with index (   236,   126) was removed from computational grid, because it is part of a 1D configuration or 1D connection.
 ** Warning          : Point removed from computational grid
Point with index (   236,   244) was removed from computational grid, because it is part of a 1D configuration or 1D connection.
 ** Warning          : Point removed from computational grid
Point with index (   236,   245) was removed from computational grid, because it is part of a 1D configuration or 1D connection.
 ** Warning          : Point removed from computational grid
Point with index (   239,   241) was removed from computational grid, because it is part of a 1D configuration or 1D connection.
 ** Warning          : Point removed from computational grid
Point with index (   239,   242) was removed from computational grid, because it is part of a 1D configuration or 1D connection.
 ** Warning          : Point removed from computational grid
Point with index (   244,   254) was removed from computational grid, because it is part of a 1D configuration or 1D connection.
 ** Warning          : Point removed from computational grid
Point with index (   245,   257) was removed from computational grid, because it is part of a 1D configuration or 1D connection.
 ** Warning          : Point removed from computational grid
Point with index (   268,   297) was removed from computational grid, because it is part of a 1D configuration or 1D connection.
 ** Warning          : Point removed from computational grid
Point with index (   279,   295) was removed from computational grid, because it is part of a 1D configuration or 1D connection.
 ** Warning          : Point removed from computational grid
Point with index (   279,   296) was removed from computational grid, because it is part of a 1D configuration or 1D connection.
 ** Warning          : Point removed from computational grid
Point with index (   280,   296) was removed from computational grid, because it is part of a 1D configuration or 1D connection.
 ** Warning          : Point removed from computational grid
Point with index (   293,    98) was removed from computational grid, because it is part of a 1D configuration or 1D connection.
 ** Warning          : Point removed from computational grid
Point with index (   293,    99) was removed from computational grid, because it is part of a 1D configuration or 1D connection.
 ** Warning          : Point removed from computational grid
Point with index (   293,   100) was removed from computational grid, because it is part of a 1D configuration or 1D connection.
 
    
 &**********WIND GRID**********&
 &INP WIND REG -43.3153 -23.0675 0 349 463 0.00082 0.00089 NONSTAT 20141013.000000 1 HR 20141017.230000
 &READinp WInd 1 SERIes 'XXXXXXXXXX' 1 0 0 0 FREE
 
    
 
    
 &**********CURRENT GRID**********&
 &INP CUR REG -43.3153 -23.0675 0 349 463 0.00082 0.00089 NONSTAT 20141013.000000 1 HR 20141017.230000
 &READinp CUR 1 SERIes 'XXXXXXXXXX' 1 0 0 0 FREE
 
    
 
    
 &**********BOUNDARY CONDITIONS AND FORCING**********&
 BOUnd SHAPespec JONswap 3.3 DSPR DEGREES
    
 
    
 &***********WAVE**********&
 BOUndspec SEG IJ 0 0 0 92 VAR FILE 0.41 'TPAR_14_a_18_setembro_1.txt' 1   &****LEITURA DO ARQUIVO DA CONDICAO DE CONTORN
 
    
 BOUndspec SEG IJ 0 0 349 0 VAR FILE 0.29 'TPAR_14_a_18_setembro_2.txt' 1    &****LEITURA DO ARQUIVO DA CONDICAO DE CONTO
 
    
 BOUndspec SEG IJ 349 0 349 92 VAR FILE 0.41 'TPAR_14_a_18_setembro_3.txt' 1    &****LEITURA DO ARQUIVO DA CONDICAO DE CO
 
    
 
    
 &**********ABOUT PHYSICS**********&
 OFF WINDG
    
 OFF WCAP
    
 OFF QUAD
    
 OFF BREAKING
    
 
    
 DIFFRAC smpar=0.2 smnum=0
    
 
    
 
    
 &**********OUTPUTS**********&
 QUANTITY HS 'HS' 'Altura Significativa' 0.00 20.00 0
    
 QUANTITY DIR 'DIR' 'Direcao Media' 0.00 360.0 0
    
 &QUANTITY VEL 'CUR' 'Corrente' 0.00 70.00 0
 
    
 BLO 'COMPGRID' NOHEADER 'hs_copa.mat' LAY 4 HS 1 OUTPUT 20150913.210000 3 HR   &****NECESSARIO ATUALIZAR AS DATAS DE INI
 BLO 'COMPGRID' NOHEADER 'dir_copa.mat' LAY 4 DIR 1 OUTPUT 20150913.210000 3 HR  &****NECESSARIO ATUALIZAR AS DATAS DE IN
 &BLO 'COMPGRID' NOHEADER 'current_copa.mat' LAY 4 VEL 1 OUTPUT 20150913.210000 3 HR  &****NECESSARIO ATUALIZAR AS DATAS
 
    
 COMP NONSTAT 20150913.210000 3 HR 20150918.210000  &****NECESSARIO ATUALIZAR AS DATAS DE INICIO E FIM DE CADA SIMULAÇÃO*
 ** Warning          : Limiter is de-activated in case of no quadruplets
 ** Warning          :  sign. wave height at boundary is not positive
 ** Warning          :  sign. wave height at boundary is not positive
 ** Warning          :  sign. wave height at boundary is not positive
 Time of computation ->  20150914.000000      in sec:      86400.
 ** Warning          :  sign. wave height at boundary is not positive
 ** Warning          :  sign. wave height at boundary is not positive
 ** Warning          :  sign. wave height at boundary is not positive

----------------------------------------------------------------
                  COMPUTATIONAL PART OF SWAN
----------------------------------------------------------------

 Gridresolution       : MXC             350 MYC            464
                      : MCGRD         71346
                      : MSC              30 MDC             32
                      : MTC              40
                      : NSTATC            1 ITERMX           1
 Propagation flags    : ITFRE             1 IREFR            1
 Source term flags    : IBOT              0 ISURF            0
                      : IWCAP             0 IWIND            0
                      : ITRIAD            0 IQUAD            0
                      : IVEG              0 ITURBV           0
                      : IMUD              0
 Spatial step         : DX       0.8195E-03 DY      0.8942E-03
 Spectral bin         : df/f     0.1244E+00 DDIR    0.1125E+02
 Physical constants   : GRAV     0.9810E+01 RHO     0.1025E+04
 Wind input           : WSPEED   0.0000E+00 DIR     0.0000E+00
 Tail parameters      : E(f)     0.4000E+01 E(k)    0.2500E+01
                      : A(f)     0.5000E+01 A(k)    0.3000E+01
 Accuracy parameters  : DREL     0.1000E-01 NPNTS   0.9950E+02
                      : DHABS    0.5000E-02 CURVAT  0.5000E-02
                      : GRWMX    0.1000E+21
 Drying/flooding      : LEVEL    0.0000E+00 DEPMIN  0.7000E+00
 The nautical  convention for wind and wave directions is used
 Scheme for geographic propagation is BSBT  
 Scheme geogr. space  : PROPSC            1 ICMAX            3
 Scheme spectral space: CSS      0.5000E+00 CDD     0.5000E+00
 Current is off
 Quadruplets is off
 Triads is off
 Bottom friction is off
 Vegetation is off
 Turbulence is off
 Fluid mud is off
 Whitecapping is off
 Surf breaking is off
 Set-up is off
 Diffraction          : SMPAR    0.2000E+00 SMNUM            0
 Janssen (`89,`90)    : ALPHA    0.1000E-01 KAPPA   0.4100E+00
 Janssen (`89,`90)    : RHOA     0.1280E+01 RHOW    0.1025E+04

 1st and 2nd gen. wind: CF10     0.1880E+03 CF20    0.5900E+00
                      : CF30     0.1200E+00 CF40    0.2500E+03
                      : CF50     0.2300E-02 CF60   -0.2230E+00
                      : CF70     0.0000E+00 CF80   -0.5600E+00
                      : RHOAW    0.1249E-02 EDMLPM  0.3600E-02
                      : CDRAG    0.1230E-02 UMIN    0.1000E+01
                      : LIM_PM   0.1300E+00

 not possible to compute, first iteration

  ** WARNING : Differences in wave height at the boundary
 Relative difference between input and computation >=   0.10
                         Hs[m]      Hs[m]      Hs[-]
     ix    iy  index   (input) (computed) (relative)
  --------------------------------------------------
   350    93  71331       2.65       2.27       0.14
   350    92  71330       2.65       2.26       0.15
   350    91  71329       2.65       2.26       0.15
   350    90  71328       2.65       2.26       0.15
   350    89  71327       2.65       2.27       0.15
   350    88  71326       2.65       2.27       0.14
   350    87  71325       2.65       2.27       0.14
   350    86  71324       2.65       2.28       0.14
   350    85  71323       2.65       2.28       0.14
   350    84  71322       2.65       2.28       0.14
   350    83  71321       2.65       2.28       0.14
   350    82  71320       2.65       2.28       0.14
   350    81  71319       2.65       2.28       0.14
   350    80  71318       2.65       2.28       0.14
   350    79  71317       2.65       2.29       0.14
   350    78  71316       2.65       2.29       0.14
   350    77  71315       2.65       2.29       0.14
   350    76  71314       2.65       2.29       0.14
   350    75  71313       2.65       2.29       0.14
   350    74  71312       2.65       2.29       0.14
   350    73  71311       2.65       2.30       0.13
   350    72  71310       2.65       2.30       0.13
   350    71  71309       2.65       2.30       0.13
   350    70  71308       2.65       2.30       0.13
   350    69  71307       2.65       2.31       0.13
   350    68  71306       2.65       2.31       0.13
   350    67  71305       2.65       2.31       0.13
   350    66  71304       2.65       2.31       0.13
   350    65  71303       2.65       2.31       0.13
   350    64  71302       2.65       2.31       0.13
   350    63  71301       2.65       2.32       0.13
   350    62  71300       2.65       2.32       0.13
   350    61  71299       2.65       2.32       0.13
   350    60  71298       2.65       2.32       0.13
     1    59     60       2.65       3.23       0.22
   350    59  71297       2.65       2.32       0.13
     1    58     59       2.65       2.98       0.12
   350    58  71296       2.65       2.32       0.13
   350    57  71295       2.65       2.32       0.13
   350    56  71294       2.65       2.32       0.13
   350    55  71293       2.65       2.32       0.12
   350    54  71292       2.65       2.32       0.12
   350    53  71291       2.65       2.32       0.12
   350    52  71290       2.65       2.32       0.12
   350    51  71289       2.65       2.32       0.12
   350    50  71288       2.65       2.33       0.12
   350    49  71287       2.65       2.33       0.12
   350    48  71286       2.65       2.33       0.12
   350    47  71285       2.65       2.33       0.12
   350    46  71284       2.65       2.33       0.12
   350    45  71283       2.65       2.33       0.12
   350    44  71282       2.65       2.34       0.12
   350    43  71281       2.65       2.34       0.12
   350    42  71280       2.65       2.34       0.12
   350    41  71279       2.65       2.35       0.12
   350    40  71278       2.65       2.35       0.11
   350    39  71277       2.65       2.35       0.11
   350    38  71276       2.65       2.36       0.11
   350    37  71275       2.65       2.36       0.11
     1    36     37       2.65       2.93       0.10
   350    36  71274       2.65       2.37       0.11
     1    35     36       2.65       3.03       0.14
   350    35  71273       2.65       2.38       0.10
     1    34     35       2.65       3.18       0.20
   350    34  71272       2.65       2.38       0.10
     1    33     34       2.65       3.30       0.24
   350    33  71271       2.65       2.39       0.10

 Time of computation ->  20150914.030000      in sec:      97200.
 not possible to compute, first iteration

  ** WARNING : Differences in wave height at the boundary
 Relative difference between input and computation >=   0.10
                         Hs[m]      Hs[m]      Hs[-]
     ix    iy  index   (input) (computed) (relative)
  --------------------------------------------------
     1    59     60       2.66       3.02       0.14
     1    35     36       2.66       2.93       0.10
     1    34     35       2.66       3.05       0.15
     1    33     34       2.66       3.14       0.18

 Time of computation ->  20150914.060000      in sec:     108000.
 not possible to compute, first iteration

  ** WARNING : Differences in wave height at the boundary
 Relative difference between input and computation >=   0.10
                         Hs[m]      Hs[m]      Hs[-]
     ix    iy  index   (input) (computed) (relative)
  --------------------------------------------------
     1    59     60       2.67       3.05       0.14
     1    35     36       2.67       2.94       0.10
     1    34     35       2.67       3.07       0.15
     1    33     34       2.67       3.17       0.19

 Time of computation ->  20150914.090000      in sec:     118800.
 not possible to compute, first iteration

  ** WARNING : Differences in wave height at the boundary
 Relative difference between input and computation >=   0.10
                         Hs[m]      Hs[m]      Hs[-]
     ix    iy  index   (input) (computed) (relative)
  --------------------------------------------------
     1    59     60       2.69       3.08       0.15
     1    35     36       2.69       2.97       0.10
     1    34     35       2.69       3.10       0.16
     1    33     34       2.69       3.20       0.19

 Time of computation ->  20150914.120000      in sec:     129600.
 not possible to compute, first iteration

  ** WARNING : Differences in wave height at the boundary
 Relative difference between input and computation >=   0.10
                         Hs[m]      Hs[m]      Hs[-]
     ix    iy  index   (input) (computed) (relative)
  --------------------------------------------------
     1    59     60       2.69       3.08       0.15
     1    35     36       2.69       2.97       0.10
     1    34     35       2.69       3.10       0.15
     1    33     34       2.69       3.20       0.19

 Time of computation ->  20150914.150000      in sec:     140400.
 not possible to compute, first iteration

  ** WARNING : Differences in wave height at the boundary
 Relative difference between input and computation >=   0.10
                         Hs[m]      Hs[m]      Hs[-]
     ix    iy  index   (input) (computed) (relative)
  --------------------------------------------------
     1    59     60       2.69       3.07       0.14
     1    35     36       2.69       2.97       0.10
     1    34     35       2.69       3.10       0.15
     1    33     34       2.69       3.20       0.19

 Time of computation ->  20150914.180000      in sec:     151200.
 not possible to compute, first iteration

  ** WARNING : Differences in wave height at the boundary
 Relative difference between input and computation >=   0.10
                         Hs[m]      Hs[m]      Hs[-]
     ix    iy  index   (input) (computed) (relative)
  --------------------------------------------------
     1    59     60       2.71       3.10       0.14
     1    35     36       2.71       2.99       0.10
     1    34     35       2.71       3.13       0.16
     1    33     34       2.71       3.23       0.19

 Time of computation ->  20150914.210000      in sec:     162000.
 not possible to compute, first iteration

  ** WARNING : Differences in wave height at the boundary
 Relative difference between input and computation >=   0.10
                         Hs[m]      Hs[m]      Hs[-]
     ix    iy  index   (input) (computed) (relative)
  --------------------------------------------------
     1    59     60       2.74       3.14       0.15
     1    35     36       2.74       3.03       0.11
     1    34     35       2.74       3.18       0.16
     1    33     34       2.74       3.29       0.20

 Time of computation ->  20150915.000000      in sec:     172800.
 ** Warning          :  sign. wave height at boundary is not positive
 ** Warning          :  sign. wave height at boundary is not positive
 ** Warning          :  sign. wave height at boundary is not positive
 not possible to compute, first iteration

  ** WARNING : Differences in wave height at the boundary
 Relative difference between input and computation >=   0.10
                         Hs[m]      Hs[m]      Hs[-]
     ix    iy  index   (input) (computed) (relative)
  --------------------------------------------------
     1    59     60       2.75       3.16       0.15
     1    35     36       2.75       3.05       0.11
     1    34     35       2.75       3.20       0.16
     1    33     34       2.75       3.31       0.20

 Time of computation ->  20150915.030000      in sec:     183600.
 not possible to compute, first iteration

  ** WARNING : Differences in wave height at the boundary
 Relative difference between input and computation >=   0.10
                         Hs[m]      Hs[m]      Hs[-]
     ix    iy  index   (input) (computed) (relative)
  --------------------------------------------------
     1    59     60       2.71       3.12       0.15
     1    35     36       2.71       3.01       0.11
     1    34     35       2.71       3.16       0.17
     1    33     34       2.71       3.26       0.21

 Time of computation ->  20150915.060000      in sec:     194400.
 not possible to compute, first iteration

  ** WARNING : Differences in wave height at the boundary
 Relative difference between input and computation >=   0.10
                         Hs[m]      Hs[m]      Hs[-]
     ix    iy  index   (input) (computed) (relative)
  --------------------------------------------------
     1    59     60       2.60       3.00       0.15
     1    35     36       2.60       2.89       0.11
     1    34     35       2.60       3.03       0.17
     1    33     34       2.60       3.14       0.20

 Time of computation ->  20150915.090000      in sec:     205200.
 not possible to compute, first iteration

  ** WARNING : Differences in wave height at the boundary
 Relative difference between input and computation >=   0.10
                         Hs[m]      Hs[m]      Hs[-]
     ix    iy  index   (input) (computed) (relative)
  --------------------------------------------------
     1    59     60       2.47       2.82       0.14
     1    35     36       2.47       2.73       0.11
     1    34     35       2.47       2.86       0.16
     1    33     34       2.47       2.96       0.20

 Time of computation ->  20150915.120000      in sec:     216000.
 not possible to compute, first iteration

  ** WARNING : Differences in wave height at the boundary
 Relative difference between input and computation >=   0.10
                         Hs[m]      Hs[m]      Hs[-]
     ix    iy  index   (input) (computed) (relative)
  --------------------------------------------------
     1    59     60       2.36       2.69       0.14
     1    35     36       2.36       2.61       0.10
     1    34     35       2.36       2.74       0.16
     1    33     34       2.36       2.83       0.20

 Time of computation ->  20150915.150000      in sec:     226800.
 not possible to compute, first iteration

  ** WARNING : Differences in wave height at the boundary
 Relative difference between input and computation >=   0.10
                         Hs[m]      Hs[m]      Hs[-]
     ix    iy  index   (input) (computed) (relative)
  --------------------------------------------------
     1    59     60       2.30       2.59       0.13
     1    34     35       2.30       2.66       0.16
     1    33     34       2.30       2.75       0.20

 Time of computation ->  20150915.180000      in sec:     237600.
 not possible to compute, first iteration

  ** WARNING : Differences in wave height at the boundary
 Relative difference between input and computation >=   0.10
                         Hs[m]      Hs[m]      Hs[-]
     ix    iy  index   (input) (computed) (relative)
  --------------------------------------------------
     1    59     60       2.26       2.51       0.11
     1    56     57       2.26       2.00       0.11
     1    55     56       2.26       1.98       0.13
     1    54     55       2.26       1.98       0.12
     1    53     54       2.26       2.01       0.11
     1    34     35       2.26       2.56       0.13
     1    33     34       2.26       2.65       0.17

 Time of computation ->  20150915.210000      in sec:     248400.
 not possible to compute, first iteration

  ** WARNING : Differences in wave height at the boundary
 Relative difference between input and computation >=   0.10
                         Hs[m]      Hs[m]      Hs[-]
     ix    iy  index   (input) (computed) (relative)
  --------------------------------------------------
     1    58     59       2.23       1.89       0.15
     1    57     58       2.23       1.75       0.22
     1    56     57       2.23       1.63       0.27
     1    55     56       2.23       1.58       0.29
     1    54     55       2.23       1.58       0.29
     1    53     54       2.23       1.61       0.28
     1    52     53       2.23       1.65       0.26
     1    51     52       2.23       1.68       0.25
     1    50     51       2.23       1.71       0.23
     1    49     50       2.23       1.74       0.22
     1    48     49       2.23       1.76       0.21
     1    47     48       2.23       1.76       0.21
     1    46     47       2.23       1.75       0.22
     1    45     46       2.23       1.73       0.23
     1    44     45       2.23       1.72       0.23
     1    43     44       2.23       1.72       0.23
     1    42     43       2.23       1.72       0.23
     1    41     42       2.23       1.74       0.22
     1    40     41       2.23       1.77       0.21
     1    39     40       2.23       1.80       0.20
     1    38     39       2.23       1.83       0.18
     1    37     38       2.23       1.87       0.16
     1    36     37       2.23       1.94       0.13
     1    31     32       2.23       1.93       0.13
     1    30     31       2.23       1.90       0.15
     1    29     30       2.23       1.88       0.16
     1    28     29       2.23       1.86       0.17
     1    27     28       2.23       1.82       0.18
     1    26     27       2.23       1.80       0.19
     1    25     26       2.23       1.79       0.20
     1    24     25       2.23       1.77       0.21
     1    23     24       2.23       1.75       0.21
     1    22     23       2.23       1.75       0.22
     1    21     22       2.23       1.76       0.21
     1    20     21       2.23       1.78       0.20
     1    19     20       2.23       1.80       0.19
     1    18     19       2.23       1.82       0.19
     1    17     18       2.23       1.84       0.18
     1    16     17       2.23       1.86       0.17
     1    15     16       2.23       1.87       0.16
     1    14     15       2.23       1.89       0.15
     1    13     14       2.23       1.90       0.15
     1    12     13       2.23       1.92       0.14
     1    11     12       2.23       1.93       0.14
     1    10     11       2.23       1.94       0.13
     1     9     10       2.23       1.94       0.13
     1     8      9       2.23       1.95       0.13
     1     7      8       2.23       1.96       0.12
     1     6      7       2.23       1.96       0.12
     1     5      6       2.23       1.97       0.12
     1     4      5       2.23       1.98       0.11
     1     3      4       2.23       2.00       0.11
   156     1  22276       2.23       2.01       0.10
   157     1  22549       2.23       2.01       0.10
   158     1  22821       2.23       2.00       0.10
   159     1  23100       2.23       2.00       0.10
   160     1  23380       2.23       2.00       0.10
   161     1  23677       2.23       2.00       0.10
   162     1  23981       2.23       2.00       0.10
   163     1  24300       2.23       2.00       0.10
   164     1  24623       2.23       2.00       0.10
   165     1  24955       2.23       2.00       0.11
   166     1  25297       2.23       2.00       0.11
   167     1  25640       2.23       1.99       0.11
   168     1  25982       2.23       1.99       0.11
   169     1  26322       2.23       1.99       0.11
   170     1  26665       2.23       1.99       0.11
   171     1  27006       2.23       1.99       0.11
   172     1  27349       2.23       1.99       0.11
   173     1  27702       2.23       1.99       0.11
   174     1  28058       2.23       1.99       0.11
   175     1  28419       2.23       1.99       0.11
   176     1  28786       2.23       1.99       0.11
   177     1  29153       2.23       1.99       0.11
   178     1  29522       2.23       2.00       0.11
   179     1  29900       2.23       2.00       0.10
   180     1  30284       2.23       2.00       0.10
   181     1  30667       2.23       2.00       0.10
   182     1  31052       2.23       2.00       0.10
   183     1  31442       2.23       2.01       0.10

 Time of computation ->  20150916.000000      in sec:     259200.
 ** Warning          :  sign. wave height at boundary is not positive
 ** Warning          :  sign. wave height at boundary is not positive
 ** Warning          :  sign. wave height at boundary is not positive
 not possible to compute, first iteration

  ** WARNING : Differences in wave height at the boundary
 Relative difference between input and computation >=   0.10
                         Hs[m]      Hs[m]      Hs[-]
     ix    iy  index   (input) (computed) (relative)
  --------------------------------------------------
     1    58     59       2.18       1.70       0.22
     1    57     58       2.18       1.53       0.30
     1    56     57       2.18       1.43       0.35
     1    55     56       2.18       1.38       0.37
     1    54     55       2.18       1.37       0.37
     1    53     54       2.18       1.40       0.36
     1    52     53       2.18       1.44       0.34
     1    51     52       2.18       1.48       0.32
     1    50     51       2.18       1.51       0.31
     1    49     50       2.18       1.55       0.29
     1    48     49       2.18       1.56       0.28
     1    47     48       2.18       1.57       0.28
     1    46     47       2.18       1.56       0.28
     1    45     46       2.18       1.55       0.29
     1    44     45       2.18       1.54       0.29
     1    43     44       2.18       1.54       0.30
     1    42     43       2.18       1.54       0.29
     1    41     42       2.18       1.55       0.29
     1    40     41       2.18       1.57       0.28
     1    39     40       2.18       1.60       0.27
     1    38     39       2.18       1.62       0.26
     1    37     38       2.18       1.66       0.24
     1    36     37       2.18       1.73       0.21
     1    35     36       2.18       1.86       0.15
     1    34     35       2.18       1.94       0.11
     1    32     33       2.18       1.89       0.14
     1    31     32       2.18       1.78       0.18
     1    30     31       2.18       1.75       0.20
     1    29     30       2.18       1.73       0.21
     1    28     29       2.18       1.72       0.21
     1    27     28       2.18       1.67       0.23
     1    26     27       2.18       1.65       0.25
     1    25     26       2.18       1.63       0.25
     1    24     25       2.18       1.60       0.27
     1    23     24       2.18       1.58       0.28
     1    22     23       2.18       1.57       0.28
     1    21     22       2.18       1.57       0.28
     1    20     21       2.18       1.58       0.27
     1    19     20       2.18       1.60       0.27
     1    18     19       2.18       1.62       0.26
     1    17     18       2.18       1.64       0.25
     1    16     17       2.18       1.66       0.24
     1    15     16       2.18       1.68       0.23
     1    14     15       2.18       1.70       0.22
     1    13     14       2.18       1.72       0.21
     1    12     13       2.18       1.73       0.21
     1    11     12       2.18       1.74       0.20
     1    10     11       2.18       1.75       0.20
     1     9     10       2.18       1.75       0.20
     1     8      9       2.18       1.76       0.19
     1     7      8       2.18       1.77       0.19
     1     6      7       2.18       1.77       0.19
     1     5      6       2.18       1.78       0.18
     1     4      5       2.18       1.79       0.18
     1     3      4       2.18       1.80       0.17
     1     2      3       2.18       1.81       0.17
     1     1      2       2.18       1.83       0.16
     2     1     61       2.18       1.83       0.16
     3     1    120       2.18       1.83       0.16
     4     1    179       2.18       1.83       0.16
     5     1    238       2.18       1.83       0.16
     6     1    296       2.18       1.83       0.16
     7     1    354       2.18       1.83       0.16
     8     1    412       2.18       1.83       0.16
     9     1    470       2.18       1.83       0.16
    10     1    528       2.18       1.83       0.16
    11     1    586       2.18       1.83       0.16
    12     1    644       2.18       1.83       0.16
    13     1    702       2.18       1.83       0.16
    14     1    760       2.18       1.83       0.16
    15     1    818       2.18       1.84       0.16
    16     1    876       2.18       1.84       0.16
    17     1    934       2.18       1.84       0.16
    18     1    992       2.18       1.84       0.16
    19     1   1050       2.18       1.84       0.16
    20     1   1108       2.18       1.84       0.16
    21     1   1166       2.18       1.84       0.16
    22     1   1224       2.18       1.84       0.16
    23     1   1281       2.18       1.84       0.16
    24     1   1338       2.18       1.84       0.16
    25     1   1395       2.18       1.84       0.16
    26     1   1452       2.18       1.84       0.16
    27     1   1510       2.18       1.84       0.16
    28     1   1568       2.18       1.84       0.16
    29     1   1627       2.18       1.84       0.16
    30     1   1686       2.18       1.84       0.16
    31     1   1745       2.18       1.84       0.16
    32     1   1803       2.18       1.84       0.16
    33     1   1861       2.18       1.84       0.16
    34     1   1922       2.18       1.84       0.16
    35     1   1988       2.18       1.84       0.16
    36     1   2054       2.18       1.84       0.16
    37     1   2121       2.18       1.85       0.16
    38     1   2188       2.18       1.85       0.15
    39     1   2256       2.18       1.85       0.15
    40     1   2324       2.18       1.85       0.15
    41     1   2392       2.18       1.85       0.15
    42     1   2461       2.18       1.85       0.15
    43     1   2530       2.18       1.85       0.15
    44     1   2598       2.18       1.85       0.15
    45     1   2666       2.18       1.85       0.15
    46     1   2735       2.18       1.85       0.15
    47     1   2810       2.18       1.85       0.15
    48     1   2888       2.18       1.85       0.15
    49     1   2973       2.18       1.85       0.15
    50     1   3074       2.18       1.85       0.15
    51     1   3183       2.18       1.85       0.15
    52     1   3302       2.18       1.85       0.15
    53     1   3423       2.18       1.85       0.15
    54     1   3546       2.18       1.85       0.15
    55     1   3668       2.18       1.85       0.15
    56     1   3794       2.18       1.85       0.15
    57     1   3924       2.18       1.85       0.15
    58     1   4054       2.18       1.85       0.15
    59     1   4186       2.18       1.85       0.15
    60     1   4320       2.18       1.85       0.15
    61     1   4454       2.18       1.85       0.15
    62     1   4585       2.18       1.85       0.15
    63     1   4714       2.18       1.86       0.15
    64     1   4844       2.18       1.86       0.15
    65     1   4973       2.18       1.86       0.15
    66     1   5104       2.18       1.86       0.15
    67     1   5233       2.18       1.86       0.15
    68     1   5367       2.18       1.86       0.15
    69     1   5501       2.18       1.86       0.15
    70     1   5636       2.18       1.86       0.15
    71     1   5771       2.18       1.86       0.15
    72     1   5906       2.18       1.86       0.15
    73     1   6039       2.18       1.86       0.15
    74     1   6170       2.18       1.87       0.15
    75     1   6298       2.18       1.87       0.15
    76     1   6426       2.18       1.87       0.14
    77     1   6551       2.18       1.87       0.14
    78     1   6676       2.18       1.87       0.14
    79     1   6800       2.18       1.87       0.14
    80     1   6926       2.18       1.87       0.14
    81     1   7052       2.18       1.88       0.14
    82     1   7179       2.18       1.88       0.14
    83     1   7308       2.18       1.88       0.14
    84     1   7436       2.18       1.88       0.14
    85     1   7563       2.18       1.88       0.14
    86     1   7690       2.18       1.88       0.14
    87     1   7819       2.18       1.88       0.14
    88     1   7954       2.18       1.89       0.14
    89     1   8095       2.18       1.89       0.14
    90     1   8235       2.18       1.89       0.14
    91     1   8373       2.18       1.89       0.13
    92     1   8509       2.18       1.89       0.13
    93     1   8647       2.18       1.89       0.13
    94     1   8791       2.18       1.89       0.13
    95     1   8943       2.18       1.90       0.13
    96     1   9096       2.18       1.90       0.13
    97     1   9254       2.18       1.90       0.13
    98     1   9410       2.18       1.90       0.13
    99     1   9573       2.18       1.90       0.13
   100     1   9737       2.18       1.90       0.13
   101     1   9904       2.18       1.91       0.13
   102     1  10077       2.18       1.91       0.13
   103     1  10255       2.18       1.91       0.13
   104     1  10430       2.18       1.91       0.13
   105     1  10607       2.18       1.91       0.12
   106     1  10785       2.18       1.91       0.12
   107     1  10967       2.18       1.91       0.12
   108     1  11152       2.18       1.91       0.12
   109     1  11338       2.18       1.92       0.12
   110     1  11531       2.18       1.92       0.12
   111     1  11726       2.18       1.92       0.12
   112     1  11917       2.18       1.92       0.12
   113     1  12115       2.18       1.92       0.12
   114     1  12318       2.18       1.91       0.12
   115     1  12532       2.18       1.91       0.12
   116     1  12749       2.18       1.91       0.12
   117     1  12970       2.18       1.91       0.13
   118     1  13193       2.18       1.91       0.13
   119     1  13417       2.18       1.90       0.13
   120     1  13641       2.18       1.90       0.13
   121     1  13868       2.18       1.90       0.13
   122     1  14097       2.18       1.89       0.13
   123     1  14328       2.18       1.88       0.14
   124     1  14560       2.18       1.87       0.14
   125     1  14796       2.18       1.87       0.15
   126     1  15033       2.18       1.86       0.15
   127     1  15269       2.18       1.86       0.15
   128     1  15507       2.18       1.86       0.15
   129     1  15745       2.18       1.86       0.15
   130     1  15984       2.18       1.86       0.15
   131     1  16221       2.18       1.86       0.15
   132     1  16459       2.18       1.86       0.15
   133     1  16698       2.18       1.86       0.15
   134     1  16938       2.18       1.86       0.15
   135     1  17179       2.18       1.86       0.15
   136     1  17421       2.18       1.85       0.15
   137     1  17662       2.18       1.85       0.15
   138     1  17903       2.18       1.85       0.15
   139     1  18141       2.18       1.85       0.15
   140     1  18378       2.18       1.85       0.15
   141     1  18615       2.18       1.85       0.15
   142     1  18850       2.18       1.85       0.15
   143     1  19081       2.18       1.85       0.15
   144     1  19312       2.18       1.85       0.16
   145     1  19548       2.18       1.84       0.16
   146     1  19785       2.18       1.84       0.16
   147     1  20023       2.18       1.84       0.16
   148     1  20259       2.18       1.83       0.16
   149     1  20497       2.18       1.83       0.16
   150     1  20738       2.18       1.83       0.16
   151     1  20981       2.18       1.83       0.16
   152     1  21230       2.18       1.83       0.16
   153     1  21482       2.18       1.82       0.17
   154     1  21737       2.18       1.82       0.17
   155     1  22004       2.18       1.82       0.17
   156     1  22276       2.18       1.82       0.17
   157     1  22549       2.18       1.81       0.17
   158     1  22821       2.18       1.81       0.17
   159     1  23100       2.18       1.81       0.17
   160     1  23380       2.18       1.81       0.17
   161     1  23677       2.18       1.80       0.17
   162     1  23981       2.18       1.80       0.18
   163     1  24300       2.18       1.80       0.18
   164     1  24623       2.18       1.80       0.18
   165     1  24955       2.18       1.79       0.18
   166     1  25297       2.18       1.79       0.18
   167     1  25640       2.18       1.79       0.18
   168     1  25982       2.18       1.79       0.18
   169     1  26322       2.18       1.79       0.18
   170     1  26665       2.18       1.79       0.18
   171     1  27006       2.18       1.78       0.18
   172     1  27349       2.18       1.78       0.18
   173     1  27702       2.18       1.78       0.18
   174     1  28058       2.18       1.78       0.18
   175     1  28419       2.18       1.79       0.18
   176     1  28786       2.18       1.79       0.18
   177     1  29153       2.18       1.79       0.18
   178     1  29522       2.18       1.79       0.18
   179     1  29900       2.18       1.79       0.18
   180     1  30284       2.18       1.80       0.18
   181     1  30667       2.18       1.80       0.18
   182     1  31052       2.18       1.81       0.17
   183     1  31442       2.18       1.81       0.17
   184     1  31834       2.18       1.82       0.17
   185     1  32229       2.18       1.82       0.17
   186     1  32622       2.18       1.83       0.16
   187     1  33016       2.18       1.84       0.16
   188     1  33407       2.18       1.85       0.15
   189     1  33802       2.18       1.86       0.15
   190     1  34197       2.18       1.88       0.14
   191     1  34592       2.18       1.90       0.13
   192     1  34988       2.18       1.92       0.12
   193     1  35384       2.18       1.95       0.11

 Time of computation ->  20150916.030000      in sec:     270000.
 not possible to compute, first iteration

  ** WARNING : Differences in wave height at the boundary
 Relative difference between input and computation >=   0.10
                         Hs[m]      Hs[m]      Hs[-]
     ix    iy  index   (input) (computed) (relative)
  --------------------------------------------------
     1    58     59       2.10       1.64       0.22
     1    57     58       2.10       1.46       0.30
     1    56     57       2.10       1.37       0.35
     1    55     56       2.10       1.32       0.37
     1    54     55       2.10       1.32       0.37
     1    53     54       2.10       1.35       0.36
     1    52     53       2.10       1.38       0.34
     1    51     52       2.10       1.42       0.33
     1    50     51       2.10       1.45       0.31
     1    49     50       2.10       1.49       0.29
     1    48     49       2.10       1.51       0.28
     1    47     48       2.10       1.51       0.28
     1    46     47       2.10       1.51       0.28
     1    45     46       2.10       1.50       0.29
     1    44     45       2.10       1.49       0.29
     1    43     44       2.10       1.49       0.29
     1    42     43       2.10       1.49       0.29
     1    41     42       2.10       1.50       0.28
     1    40     41       2.10       1.52       0.27
     1    39     40       2.10       1.55       0.26
     1    38     39       2.10       1.57       0.25
     1    37     38       2.10       1.60       0.24
     1    36     37       2.10       1.68       0.20
     1    35     36       2.10       1.81       0.14
     1    32     33       2.10       1.84       0.12
     1    31     32       2.10       1.73       0.18
     1    30     31       2.10       1.70       0.19
     1    29     30       2.10       1.68       0.20
     1    28     29       2.10       1.67       0.21
     1    27     28       2.10       1.62       0.23
     1    26     27       2.10       1.60       0.24
     1    25     26       2.10       1.58       0.25
     1    24     25       2.10       1.55       0.26
     1    23     24       2.10       1.53       0.27
     1    22     23       2.10       1.51       0.28
     1    21     22       2.10       1.51       0.28
     1    20     21       2.10       1.52       0.28
     1    19     20       2.10       1.54       0.27
     1    18     19       2.10       1.56       0.26
     1    17     18       2.10       1.58       0.25
     1    16     17       2.10       1.60       0.24
     1    15     16       2.10       1.62       0.23
     1    14     15       2.10       1.63       0.22
     1    13     14       2.10       1.65       0.22
     1    12     13       2.10       1.66       0.21
     1    11     12       2.10       1.67       0.21
     1    10     11       2.10       1.68       0.20
     1     9     10       2.10       1.68       0.20
     1     8      9       2.10       1.69       0.20
     1     7      8       2.10       1.70       0.19
     1     6      7       2.10       1.70       0.19
     1     5      6       2.10       1.71       0.19
     1     4      5       2.10       1.72       0.18
     1     3      4       2.10       1.73       0.18
     1     2      3       2.10       1.74       0.17
     1     1      2       2.10       1.75       0.17
     2     1     61       2.10       1.75       0.16
     3     1    120       2.10       1.75       0.17
     4     1    179       2.10       1.75       0.17
     5     1    238       2.10       1.75       0.16
     6     1    296       2.10       1.76       0.16
     7     1    354       2.10       1.76       0.16
     8     1    412       2.10       1.76       0.16
     9     1    470       2.10       1.76       0.16
    10     1    528       2.10       1.76       0.16
    11     1    586       2.10       1.76       0.16
    12     1    644       2.10       1.76       0.16
    13     1    702       2.10       1.76       0.16
    14     1    760       2.10       1.76       0.16
    15     1    818       2.10       1.76       0.16
    16     1    876       2.10       1.76       0.16
    17     1    934       2.10       1.76       0.16
    18     1    992       2.10       1.76       0.16
    19     1   1050       2.10       1.76       0.16
    20     1   1108       2.10       1.76       0.16
    21     1   1166       2.10       1.76       0.16
    22     1   1224       2.10       1.76       0.16
    23     1   1281       2.10       1.76       0.16
    24     1   1338       2.10       1.76       0.16
    25     1   1395       2.10       1.76       0.16
    26     1   1452       2.10       1.77       0.16
    27     1   1510       2.10       1.77       0.16
    28     1   1568       2.10       1.77       0.16
    29     1   1627       2.10       1.77       0.16
    30     1   1686       2.10       1.77       0.16
    31     1   1745       2.10       1.77       0.16
    32     1   1803       2.10       1.77       0.16
    33     1   1861       2.10       1.77       0.16
    34     1   1922       2.10       1.77       0.16
    35     1   1988       2.10       1.77       0.16
    36     1   2054       2.10       1.77       0.16
    37     1   2121       2.10       1.77       0.16
    38     1   2188       2.10       1.77       0.16
    39     1   2256       2.10       1.77       0.16
    40     1   2324       2.10       1.77       0.16
    41     1   2392       2.10       1.77       0.16
    42     1   2461       2.10       1.77       0.16
    43     1   2530       2.10       1.77       0.16
    44     1   2598       2.10       1.77       0.16
    45     1   2666       2.10       1.77       0.16
    46     1   2735       2.10       1.77       0.16
    47     1   2810       2.10       1.77       0.16
    48     1   2888       2.10       1.77       0.16
    49     1   2973       2.10       1.77       0.16
    50     1   3074       2.10       1.77       0.16
    51     1   3183       2.10       1.77       0.16
    52     1   3302       2.10       1.77       0.16
    53     1   3423       2.10       1.77       0.16
    54     1   3546       2.10       1.77       0.16
    55     1   3668       2.10       1.78       0.16
    56     1   3794       2.10       1.78       0.15
    57     1   3924       2.10       1.78       0.15
    58     1   4054       2.10       1.78       0.15
    59     1   4186       2.10       1.78       0.15
    60     1   4320       2.10       1.78       0.15
    61     1   4454       2.10       1.78       0.15
    62     1   4585       2.10       1.78       0.15
    63     1   4714       2.10       1.78       0.15
    64     1   4844       2.10       1.78       0.15
    65     1   4973       2.10       1.78       0.15
    66     1   5104       2.10       1.78       0.15
    67     1   5233       2.10       1.78       0.15
    68     1   5367       2.10       1.78       0.15
    69     1   5501       2.10       1.79       0.15
    70     1   5636       2.10       1.79       0.15
    71     1   5771       2.10       1.79       0.15
    72     1   5906       2.10       1.79       0.15
    73     1   6039       2.10       1.79       0.15
    74     1   6170       2.10       1.79       0.15
    75     1   6298       2.10       1.79       0.15
    76     1   6426       2.10       1.79       0.15
    77     1   6551       2.10       1.80       0.15
    78     1   6676       2.10       1.80       0.14
    79     1   6800       2.10       1.80       0.14
    80     1   6926       2.10       1.80       0.14
    81     1   7052       2.10       1.80       0.14
    82     1   7179       2.10       1.80       0.14
    83     1   7308       2.10       1.81       0.14
    84     1   7436       2.10       1.81       0.14
    85     1   7563       2.10       1.81       0.14
    86     1   7690       2.10       1.81       0.14
    87     1   7819       2.10       1.81       0.14
    88     1   7954       2.10       1.81       0.14
    89     1   8095       2.10       1.81       0.14
    90     1   8235       2.10       1.82       0.14
    91     1   8373       2.10       1.82       0.13
    92     1   8509       2.10       1.82       0.13
    93     1   8647       2.10       1.82       0.13
    94     1   8791       2.10       1.82       0.13
    95     1   8943       2.10       1.82       0.13
    96     1   9096       2.10       1.83       0.13
    97     1   9254       2.10       1.83       0.13
    98     1   9410       2.10       1.83       0.13
    99     1   9573       2.10       1.83       0.13
   100     1   9737       2.10       1.83       0.13
   101     1   9904       2.10       1.84       0.13
   102     1  10077       2.10       1.84       0.13
   103     1  10255       2.10       1.84       0.12
   104     1  10430       2.10       1.84       0.12
   105     1  10607       2.10       1.84       0.12
   106     1  10785       2.10       1.84       0.12
   107     1  10967       2.10       1.84       0.12
   108     1  11152       2.10       1.85       0.12
   109     1  11338       2.10       1.85       0.12
   110     1  11531       2.10       1.85       0.12
   111     1  11726       2.10       1.85       0.12
   112     1  11917       2.10       1.85       0.12
   113     1  12115       2.10       1.85       0.12
   114     1  12318       2.10       1.85       0.12
   115     1  12532       2.10       1.85       0.12
   116     1  12749       2.10       1.84       0.12
   117     1  12970       2.10       1.84       0.12
   118     1  13193       2.10       1.84       0.12
   119     1  13417       2.10       1.84       0.13
   120     1  13641       2.10       1.83       0.13
   121     1  13868       2.10       1.83       0.13
   122     1  14097       2.10       1.82       0.13
   123     1  14328       2.10       1.81       0.14
   124     1  14560       2.10       1.80       0.14
   125     1  14796       2.10       1.79       0.15
   126     1  15033       2.10       1.79       0.15
   127     1  15269       2.10       1.79       0.15
   128     1  15507       2.10       1.78       0.15
   129     1  15745       2.10       1.78       0.15
   130     1  15984       2.10       1.78       0.15
   131     1  16221       2.10       1.78       0.15
   132     1  16459       2.10       1.78       0.15
   133     1  16698       2.10       1.78       0.15
   134     1  16938       2.10       1.78       0.15
   135     1  17179       2.10       1.78       0.15
   136     1  17421       2.10       1.78       0.15
   137     1  17662       2.10       1.78       0.15
   138     1  17903       2.10       1.78       0.15
   139     1  18141       2.10       1.78       0.15
   140     1  18378       2.10       1.78       0.15
   141     1  18615       2.10       1.78       0.15
   142     1  18850       2.10       1.78       0.15
   143     1  19081       2.10       1.77       0.16
   144     1  19312       2.10       1.77       0.16
   145     1  19548       2.10       1.77       0.16
   146     1  19785       2.10       1.77       0.16
   147     1  20023       2.10       1.76       0.16
   148     1  20259       2.10       1.76       0.16
   149     1  20497       2.10       1.76       0.16
   150     1  20738       2.10       1.76       0.16
   151     1  20981       2.10       1.75       0.17
   152     1  21230       2.10       1.75       0.17
   153     1  21482       2.10       1.75       0.17
   154     1  21737       2.10       1.75       0.17
   155     1  22004       2.10       1.74       0.17
   156     1  22276       2.10       1.74       0.17
   157     1  22549       2.10       1.74       0.17
   158     1  22821       2.10       1.74       0.17
   159     1  23100       2.10       1.73       0.18
   160     1  23380       2.10       1.73       0.18
   161     1  23677       2.10       1.73       0.18
   162     1  23981       2.10       1.72       0.18
   163     1  24300       2.10       1.72       0.18
   164     1  24623       2.10       1.72       0.18
   165     1  24955       2.10       1.72       0.18
   166     1  25297       2.10       1.71       0.18
   167     1  25640       2.10       1.71       0.18
   168     1  25982       2.10       1.71       0.19
   169     1  26322       2.10       1.71       0.19
   170     1  26665       2.10       1.71       0.19
   171     1  27006       2.10       1.71       0.19
   172     1  27349       2.10       1.71       0.19
   173     1  27702       2.10       1.71       0.19
   174     1  28058       2.10       1.71       0.19
   175     1  28419       2.10       1.71       0.19
   176     1  28786       2.10       1.71       0.19
   177     1  29153       2.10       1.71       0.19
   178     1  29522       2.10       1.71       0.19
   179     1  29900       2.10       1.72       0.18
   180     1  30284       2.10       1.72       0.18
   181     1  30667       2.10       1.72       0.18
   182     1  31052       2.10       1.73       0.18
   183     1  31442       2.10       1.73       0.18
   184     1  31834       2.10       1.74       0.17
   185     1  32229       2.10       1.75       0.17
   186     1  32622       2.10       1.75       0.17
   187     1  33016       2.10       1.76       0.16
   188     1  33407       2.10       1.77       0.16
   189     1  33802       2.10       1.79       0.15
   190     1  34197       2.10       1.80       0.14
   191     1  34592       2.10       1.82       0.13
   192     1  34988       2.10       1.85       0.12
   193     1  35384       2.10       1.88       0.10

 Time of computation ->  20150916.060000      in sec:     280800.
 not possible to compute, first iteration

  ** WARNING : Differences in wave height at the boundary
 Relative difference between input and computation >=   0.10
                         Hs[m]      Hs[m]      Hs[-]
     ix    iy  index   (input) (computed) (relative)
  --------------------------------------------------
     1    59     60       1.97       2.23       0.13
     1    58     59       1.97       1.77       0.10
     1    57     58       1.97       1.63       0.17
     1    56     57       1.97       1.52       0.23
     1    55     56       1.97       1.47       0.25
     1    54     55       1.97       1.46       0.26
     1    53     54       1.97       1.49       0.24
     1    52     53       1.97       1.52       0.23
     1    51     52       1.97       1.56       0.21
     1    50     51       1.97       1.59       0.19
     1    49     50       1.97       1.62       0.18
     1    48     49       1.97       1.63       0.17
     1    47     48       1.97       1.63       0.17
     1    46     47       1.97       1.62       0.18
     1    45     46       1.97       1.60       0.19
     1    44     45       1.97       1.60       0.19
     1    43     44       1.97       1.60       0.19
     1    42     43       1.97       1.61       0.18
     1    41     42       1.97       1.63       0.17
     1    40     41       1.97       1.66       0.16
     1    39     40       1.97       1.69       0.14
     1    38     39       1.97       1.72       0.13
     1    37     38       1.97       1.75       0.11
     1    33     34       1.97       2.20       0.12
     1    29     30       1.97       1.75       0.11
     1    28     29       1.97       1.73       0.12
     1    27     28       1.97       1.69       0.14
     1    26     27       1.97       1.66       0.16
     1    25     26       1.97       1.64       0.17
     1    24     25       1.97       1.62       0.18
     1    23     24       1.97       1.59       0.19
     1    22     23       1.97       1.58       0.20
     1    21     22       1.97       1.59       0.19
     1    20     21       1.97       1.60       0.19
     1    19     20       1.97       1.62       0.18
     1    18     19       1.97       1.64       0.17
     1    17     18       1.97       1.65       0.16
     1    16     17       1.97       1.67       0.15
     1    15     16       1.97       1.68       0.15
     1    14     15       1.97       1.70       0.14
     1    13     14       1.97       1.71       0.13
     1    12     13       1.97       1.72       0.13
     1    11     12       1.97       1.73       0.12
     1    10     11       1.97       1.73       0.12
     1     9     10       1.97       1.74       0.12
     1     8      9       1.97       1.74       0.11
     1     7      8       1.97       1.75       0.11
     1     6      7       1.97       1.76       0.11
     1     5      6       1.97       1.76       0.10
     1     4      5       1.97       1.77       0.10
   160     1  23380       1.97       1.77       0.10
   161     1  23677       1.97       1.77       0.10
   162     1  23981       1.97       1.77       0.10
   163     1  24300       1.97       1.77       0.10
   164     1  24623       1.97       1.76       0.10
   165     1  24955       1.97       1.76       0.10
   166     1  25297       1.97       1.76       0.11
   167     1  25640       1.97       1.76       0.11
   168     1  25982       1.97       1.76       0.11
   169     1  26322       1.97       1.76       0.11
   170     1  26665       1.97       1.76       0.11
   171     1  27006       1.97       1.76       0.11
   172     1  27349       1.97       1.76       0.11
   173     1  27702       1.97       1.76       0.11
   174     1  28058       1.97       1.76       0.11
   175     1  28419       1.97       1.76       0.11
   176     1  28786       1.97       1.76       0.11
   177     1  29153       1.97       1.76       0.11
   178     1  29522       1.97       1.76       0.11
   179     1  29900       1.97       1.76       0.10
   180     1  30284       1.97       1.76       0.10
   181     1  30667       1.97       1.77       0.10
   182     1  31052       1.97       1.77       0.10

 Time of computation ->  20150916.090000      in sec:     291600.
 not possible to compute, first iteration

  ** WARNING : Differences in wave height at the boundary
 Relative difference between input and computation >=   0.10
                         Hs[m]      Hs[m]      Hs[-]
     ix    iy  index   (input) (computed) (relative)
  --------------------------------------------------
     1    59     60       1.86       2.14       0.15
     1    57     58       1.86       1.63       0.12
     1    56     57       1.86       1.51       0.19
     1    55     56       1.86       1.47       0.21
     1    54     55       1.86       1.47       0.21
     1    53     54       1.86       1.49       0.20
     1    52     53       1.86       1.52       0.18
     1    51     52       1.86       1.55       0.17
     1    50     51       1.86       1.58       0.15
     1    49     50       1.86       1.60       0.14
     1    48     49       1.86       1.61       0.13
     1    47     48       1.86       1.61       0.14
     1    46     47       1.86       1.60       0.14
     1    45     46       1.86       1.58       0.15
     1    44     45       1.86       1.58       0.15
     1    43     44       1.86       1.58       0.15
     1    42     43       1.86       1.59       0.14
     1    41     42       1.86       1.61       0.13
     1    40     41       1.86       1.64       0.12
     1    39     40       1.86       1.67       0.10
     1    34     35       1.86       2.08       0.12
     1    33     34       1.86       2.16       0.16
     1    28     29       1.86       1.67       0.10
     1    27     28       1.86       1.63       0.12
     1    26     27       1.86       1.60       0.14
     1    25     26       1.86       1.59       0.15
     1    24     25       1.86       1.57       0.16
     1    23     24       1.86       1.55       0.16
     1    22     23       1.86       1.55       0.17
     1    21     22       1.86       1.56       0.16
     1    20     21       1.86       1.57       0.15
     1    19     20       1.86       1.59       0.14
     1    18     19       1.86       1.60       0.14
     1    17     18       1.86       1.62       0.13
     1    16     17       1.86       1.64       0.12
     1    15     16       1.86       1.65       0.11
     1    14     15       1.86       1.66       0.11
     1    13     14       1.86       1.67       0.10

 Time of computation ->  20150916.120000      in sec:     302400.
 not possible to compute, first iteration

  ** WARNING : Differences in wave height at the boundary
 Relative difference between input and computation >=   0.10
                         Hs[m]      Hs[m]      Hs[-]
     ix    iy  index   (input) (computed) (relative)
  --------------------------------------------------
     1    59     60       1.78       2.03       0.14
     1    57     58       1.78       1.55       0.13
     1    56     57       1.78       1.44       0.19
     1    55     56       1.78       1.40       0.22
     1    54     55       1.78       1.39       0.22
     1    53     54       1.78       1.41       0.21
     1    52     53       1.78       1.45       0.19
     1    51     52       1.78       1.47       0.17
     1    50     51       1.78       1.50       0.16
     1    49     50       1.78       1.52       0.15
     1    48     49       1.78       1.53       0.14
     1    47     48       1.78       1.52       0.14
     1    46     47       1.78       1.51       0.15
     1    45     46       1.78       1.50       0.16
     1    44     45       1.78       1.49       0.16
     1    43     44       1.78       1.49       0.16
     1    42     43       1.78       1.50       0.15
     1    41     42       1.78       1.53       0.14
     1    40     41       1.78       1.55       0.13
     1    39     40       1.78       1.58       0.11
     1    33     34       1.78       2.04       0.15
     1    29     30       1.78       1.60       0.10
     1    28     29       1.78       1.58       0.11
     1    27     28       1.78       1.54       0.13
     1    26     27       1.78       1.52       0.15
     1    25     26       1.78       1.51       0.15
     1    24     25       1.78       1.49       0.16
     1    23     24       1.78       1.47       0.17
     1    22     23       1.78       1.47       0.17
     1    21     22       1.78       1.48       0.17
     1    20     21       1.78       1.50       0.16
[...]
   123     1  14328       1.57       1.39       0.11
   124     1  14560       1.57       1.39       0.12
   125     1  14796       1.57       1.38       0.12
   126     1  15033       1.57       1.38       0.12
   127     1  15269       1.57       1.37       0.13
   128     1  15507       1.57       1.37       0.13
   129     1  15745       1.57       1.37       0.13
   130     1  15984       1.57       1.37       0.13
   131     1  16221       1.57       1.37       0.13
   132     1  16459       1.57       1.37       0.13
   133     1  16698       1.57       1.37       0.13
   134     1  16938       1.57       1.37       0.13
   135     1  17179       1.57       1.37       0.13
   136     1  17421       1.57       1.37       0.13
   137     1  17662       1.57       1.37       0.13
   138     1  17903       1.57       1.37       0.13
   139     1  18141       1.57       1.37       0.13
   140     1  18378       1.57       1.37       0.13
   141     1  18615       1.57       1.37       0.13
   142     1  18850       1.57       1.37       0.13
   143     1  19081       1.57       1.37       0.13
   144     1  19312       1.57       1.36       0.13
   145     1  19548       1.57       1.36       0.13
   146     1  19785       1.57       1.36       0.13
   147     1  20023       1.57       1.36       0.14
   148     1  20259       1.57       1.36       0.14
   149     1  20497       1.57       1.36       0.14
   150     1  20738       1.57       1.35       0.14
   151     1  20981       1.57       1.35       0.14
   152     1  21230       1.57       1.35       0.14
   153     1  21482       1.57       1.35       0.14
   154     1  21737       1.57       1.35       0.14
   155     1  22004       1.57       1.35       0.14
   156     1  22276       1.57       1.35       0.14
   157     1  22549       1.57       1.34       0.15
   158     1  22821       1.57       1.34       0.15
   159     1  23100       1.57       1.34       0.15
   160     1  23380       1.57       1.34       0.15
   161     1  23677       1.57       1.34       0.15
   162     1  23981       1.57       1.34       0.15
   163     1  24300       1.57       1.33       0.15
   164     1  24623       1.57       1.33       0.15
   165     1  24955       1.57       1.33       0.15
   166     1  25297       1.57       1.33       0.15
   167     1  25640       1.57       1.33       0.15
   168     1  25982       1.57       1.33       0.16
   169     1  26322       1.57       1.33       0.16
   170     1  26665       1.57       1.33       0.16
   171     1  27006       1.57       1.33       0.16
   172     1  27349       1.57       1.33       0.16
   173     1  27702       1.57       1.33       0.16
   174     1  28058       1.57       1.33       0.16
   175     1  28419       1.57       1.33       0.16
   176     1  28786       1.57       1.33       0.16
   177     1  29153       1.57       1.33       0.16
   178     1  29522       1.57       1.33       0.15
   179     1  29900       1.57       1.33       0.15
   180     1  30284       1.57       1.33       0.15
   181     1  30667       1.57       1.33       0.15
   182     1  31052       1.57       1.34       0.15
   183     1  31442       1.57       1.34       0.15
   184     1  31834       1.57       1.34       0.15
   185     1  32229       1.57       1.35       0.14
   186     1  32622       1.57       1.35       0.14
   187     1  33016       1.57       1.36       0.14
   188     1  33407       1.57       1.36       0.13
   189     1  33802       1.57       1.37       0.13
   190     1  34197       1.57       1.38       0.12
   191     1  34592       1.57       1.39       0.12
   192     1  34988       1.57       1.40       0.11

 Time of computation ->  20150918.180000      in sec:     496800.
 not possible to compute, first iteration

  ** WARNING : Differences in wave height at the boundary
 Relative difference between input and computation >=   0.10
                         Hs[m]      Hs[m]      Hs[-]
     ix    iy  index   (input) (computed) (relative)
  --------------------------------------------------
     1    59     60       1.57       1.79       0.14
     1    57     58       1.57       1.33       0.15
     1    56     57       1.57       1.23       0.21
     1    55     56       1.57       1.19       0.24
     1    54     55       1.57       1.19       0.24
     1    53     54       1.57       1.20       0.23
     1    52     53       1.57       1.23       0.21
     1    51     52       1.57       1.26       0.20
     1    50     51       1.57       1.28       0.18
     1    49     50       1.57       1.30       0.17
     1    48     49       1.57       1.31       0.16
     1    47     48       1.57       1.31       0.16
     1    46     47       1.57       1.30       0.17
     1    45     46       1.57       1.29       0.18
     1    44     45       1.57       1.28       0.18
     1    43     44       1.57       1.28       0.18
     1    42     43       1.57       1.29       0.18
     1    41     42       1.57       1.31       0.16
     1    40     41       1.57       1.33       0.15
     1    39     40       1.57       1.35       0.14
     1    38     39       1.57       1.38       0.12
     1    33     34       1.57       1.77       0.13
     1    29     30       1.57       1.39       0.11
     1    28     29       1.57       1.37       0.12
     1    27     28       1.57       1.34       0.15
     1    26     27       1.57       1.31       0.16
     1    25     26       1.57       1.30       0.17
     1    24     25       1.57       1.28       0.18
     1    23     24       1.57       1.27       0.19
     1    22     23       1.57       1.26       0.20
     1    21     22       1.57       1.27       0.19
     1    20     21       1.57       1.28       0.18
     1    19     20       1.57       1.29       0.17
     1    18     19       1.57       1.31       0.16
     1    17     18       1.57       1.32       0.16
     1    16     17       1.57       1.33       0.15
     1    15     16       1.57       1.35       0.14
     1    14     15       1.57       1.36       0.13
     1    13     14       1.57       1.37       0.13
     1    12     13       1.57       1.37       0.12
     1    11     12       1.57       1.38       0.12
     1    10     11       1.57       1.39       0.11
     1     9     10       1.57       1.39       0.11
     1     8      9       1.57       1.40       0.11
     1     7      8       1.57       1.40       0.10
     1     6      7       1.57       1.41       0.10

 Time of computation ->  20150918.210000      in sec:     507600.
 not possible to compute, first iteration

  ** WARNING : Differences in wave height at the boundary
 Relative difference between input and computation >=   0.10
                         Hs[m]      Hs[m]      Hs[-]
     ix    iy  index   (input) (computed) (relative)
  --------------------------------------------------
     1    59     60       1.62       1.82       0.12
     1    58     59       1.62       1.37       0.15
     1    57     58       1.62       1.24       0.23
     1    56     57       1.62       1.15       0.29
     1    55     56       1.62       1.11       0.32
     1    54     55       1.62       1.10       0.32
     1    53     54       1.62       1.11       0.31
     1    52     53       1.62       1.14       0.30
     1    51     52       1.62       1.16       0.28
     1    50     51       1.62       1.19       0.26
     1    49     50       1.62       1.21       0.25
     1    48     49       1.62       1.22       0.24
     1    47     48       1.62       1.22       0.24
     1    46     47       1.62       1.21       0.25
     1    45     46       1.62       1.20       0.26
     1    44     45       1.62       1.19       0.26
     1    43     44       1.62       1.19       0.27
     1    42     43       1.62       1.19       0.26
     1    41     42       1.62       1.21       0.25
     1    40     41       1.62       1.23       0.24
     1    39     40       1.62       1.25       0.23
     1    38     39       1.62       1.27       0.21
     1    37     38       1.62       1.31       0.19
     1    36     37       1.62       1.37       0.16
     1    31     32       1.62       1.39       0.14
     1    30     31       1.62       1.35       0.17
     1    29     30       1.62       1.33       0.18
     1    28     29       1.62       1.32       0.19
     1    27     28       1.62       1.28       0.21
     1    26     27       1.62       1.26       0.22
     1    25     26       1.62       1.24       0.23
     1    24     25       1.62       1.22       0.25
     1    23     24       1.62       1.20       0.26
     1    22     23       1.62       1.19       0.27
     1    21     22       1.62       1.19       0.27
     1    20     21       1.62       1.20       0.26
     1    19     20       1.62       1.21       0.25
     1    18     19       1.62       1.23       0.24
     1    17     18       1.62       1.24       0.23
     1    16     17       1.62       1.26       0.22
     1    15     16       1.62       1.27       0.22
     1    14     15       1.62       1.28       0.21
     1    13     14       1.62       1.29       0.20
     1    12     13       1.62       1.30       0.19
     1    11     12       1.62       1.31       0.19
     1    10     11       1.62       1.32       0.19
     1     9     10       1.62       1.33       0.18
     1     8      9       1.62       1.33       0.18
     1     7      8       1.62       1.34       0.17
     1     6      7       1.62       1.34       0.17
     1     5      6       1.62       1.35       0.17
     1     4      5       1.62       1.36       0.16
     1     3      4       1.62       1.37       0.15
     1     2      3       1.62       1.38       0.15
     1     1      2       1.62       1.39       0.14
     2     1     61       1.62       1.39       0.14
     3     1    120       1.62       1.39       0.14
     4     1    179       1.62       1.39       0.14
     5     1    238       1.62       1.39       0.14
     6     1    296       1.62       1.39       0.14
     7     1    354       1.62       1.39       0.14
     8     1    412       1.62       1.39       0.14
     9     1    470       1.62       1.39       0.14
    10     1    528       1.62       1.39       0.14
    11     1    586       1.62       1.39       0.14
    12     1    644       1.62       1.39       0.14
    13     1    702       1.62       1.39       0.14
    14     1    760       1.62       1.39       0.14
    15     1    818       1.62       1.39       0.14
    16     1    876       1.62       1.39       0.14
    17     1    934       1.62       1.39       0.14
    18     1    992       1.62       1.39       0.14
    19     1   1050       1.62       1.39       0.14
    20     1   1108       1.62       1.39       0.14
    21     1   1166       1.62       1.39       0.14
    22     1   1224       1.62       1.39       0.14
    23     1   1281       1.62       1.39       0.14
    24     1   1338       1.62       1.39       0.14
    25     1   1395       1.62       1.39       0.14
    26     1   1452       1.62       1.39       0.14
    27     1   1510       1.62       1.39       0.14
    28     1   1568       1.62       1.39       0.14
    29     1   1627       1.62       1.39       0.14
    30     1   1686       1.62       1.40       0.14
    31     1   1745       1.62       1.40       0.14
    32     1   1803       1.62       1.40       0.14
    33     1   1861       1.62       1.40       0.14
    34     1   1922       1.62       1.40       0.14
    35     1   1988       1.62       1.40       0.14
    36     1   2054       1.62       1.40       0.14
    37     1   2121       1.62       1.40       0.14
    38     1   2188       1.62       1.40       0.14
    39     1   2256       1.62       1.40       0.14
    40     1   2324       1.62       1.40       0.14
    41     1   2392       1.62       1.40       0.14
    42     1   2461       1.62       1.40       0.14
    43     1   2530       1.62       1.40       0.14
    44     1   2598       1.62       1.40       0.14
    45     1   2666       1.62       1.40       0.14
    46     1   2735       1.62       1.40       0.14
    47     1   2810       1.62       1.40       0.14
    48     1   2888       1.62       1.40       0.14
    49     1   2973       1.62       1.40       0.14
    50     1   3074       1.62       1.40       0.14
    51     1   3183       1.62       1.40       0.13
    52     1   3302       1.62       1.40       0.13
    53     1   3423       1.62       1.40       0.13
    54     1   3546       1.62       1.40       0.13
    55     1   3668       1.62       1.40       0.13
    56     1   3794       1.62       1.40       0.13
    57     1   3924       1.62       1.40       0.13
    58     1   4054       1.62       1.40       0.13
    59     1   4186       1.62       1.40       0.13
    60     1   4320       1.62       1.40       0.13
    61     1   4454       1.62       1.40       0.13
    62     1   4585       1.62       1.40       0.13
    63     1   4714       1.62       1.40       0.13
    64     1   4844       1.62       1.41       0.13
    65     1   4973       1.62       1.41       0.13
    66     1   5104       1.62       1.41       0.13
    67     1   5233       1.62       1.41       0.13
    68     1   5367       1.62       1.41       0.13
    69     1   5501       1.62       1.41       0.13
    70     1   5636       1.62       1.41       0.13
    71     1   5771       1.62       1.41       0.13
    72     1   5906       1.62       1.41       0.13
    73     1   6039       1.62       1.41       0.13
    74     1   6170       1.62       1.41       0.13
    75     1   6298       1.62       1.41       0.13
    76     1   6426       1.62       1.41       0.13
    77     1   6551       1.62       1.42       0.13
    78     1   6676       1.62       1.42       0.13
    79     1   6800       1.62       1.42       0.12
    80     1   6926       1.62       1.42       0.12
    81     1   7052       1.62       1.42       0.12
    82     1   7179       1.62       1.42       0.12
    83     1   7308       1.62       1.42       0.12
    84     1   7436       1.62       1.42       0.12
    85     1   7563       1.62       1.42       0.12
    86     1   7690       1.62       1.43       0.12
    87     1   7819       1.62       1.43       0.12
    88     1   7954       1.62       1.43       0.12
    89     1   8095       1.62       1.43       0.12
    90     1   8235       1.62       1.43       0.12
    91     1   8373       1.62       1.43       0.12
    92     1   8509       1.62       1.43       0.12
    93     1   8647       1.62       1.43       0.11
    94     1   8791       1.62       1.43       0.11
    95     1   8943       1.62       1.44       0.11
    96     1   9096       1.62       1.44       0.11
    97     1   9254       1.62       1.44       0.11
    98     1   9410       1.62       1.44       0.11
    99     1   9573       1.62       1.44       0.11
   100     1   9737       1.62       1.44       0.11
   101     1   9904       1.62       1.44       0.11
   102     1  10077       1.62       1.44       0.11
   103     1  10255       1.62       1.45       0.11
   104     1  10430       1.62       1.45       0.11
   105     1  10607       1.62       1.45       0.11
   106     1  10785       1.62       1.45       0.10
   107     1  10967       1.62       1.45       0.10
   108     1  11152       1.62       1.45       0.10
   109     1  11338       1.62       1.45       0.10
   110     1  11531       1.62       1.45       0.10
   111     1  11726       1.62       1.45       0.10
   112     1  11917       1.62       1.45       0.10
   113     1  12115       1.62       1.45       0.10
   114     1  12318       1.62       1.45       0.10
   115     1  12532       1.62       1.45       0.10
   116     1  12749       1.62       1.45       0.10
   117     1  12970       1.62       1.45       0.10
   118     1  13193       1.62       1.45       0.11
   119     1  13417       1.62       1.45       0.11
   120     1  13641       1.62       1.44       0.11
   121     1  13868       1.62       1.44       0.11
   122     1  14097       1.62       1.44       0.11
   123     1  14328       1.62       1.43       0.12
   124     1  14560       1.62       1.42       0.12
   125     1  14796       1.62       1.42       0.13
   126     1  15033       1.62       1.41       0.13
   127     1  15269       1.62       1.41       0.13
   128     1  15507       1.62       1.41       0.13
   129     1  15745       1.62       1.41       0.13
   130     1  15984       1.62       1.41       0.13
   131     1  16221       1.62       1.41       0.13
   132     1  16459       1.62       1.41       0.13
   133     1  16698       1.62       1.41       0.13
   134     1  16938       1.62       1.41       0.13
   135     1  17179       1.62       1.41       0.13
   136     1  17421       1.62       1.41       0.13
   137     1  17662       1.62       1.41       0.13
   138     1  17903       1.62       1.41       0.13
   139     1  18141       1.62       1.41       0.13
   140     1  18378       1.62       1.41       0.13
   141     1  18615       1.62       1.41       0.13
   142     1  18850       1.62       1.40       0.13
   143     1  19081       1.62       1.40       0.13
   144     1  19312       1.62       1.40       0.13
   145     1  19548       1.62       1.40       0.14
   146     1  19785       1.62       1.40       0.14
   147     1  20023       1.62       1.40       0.14
   148     1  20259       1.62       1.39       0.14
   149     1  20497       1.62       1.39       0.14
   150     1  20738       1.62       1.39       0.14
   151     1  20981       1.62       1.39       0.14
   152     1  21230       1.62       1.39       0.14
   153     1  21482       1.62       1.39       0.14
   154     1  21737       1.62       1.39       0.14
   155     1  22004       1.62       1.38       0.15
   156     1  22276       1.62       1.38       0.15
   157     1  22549       1.62       1.38       0.15
   158     1  22821       1.62       1.38       0.15
   159     1  23100       1.62       1.38       0.15
   160     1  23380       1.62       1.38       0.15
   161     1  23677       1.62       1.37       0.15
   162     1  23981       1.62       1.37       0.15
   163     1  24300       1.62       1.37       0.15
   164     1  24623       1.62       1.37       0.15
   165     1  24955       1.62       1.37       0.15
   166     1  25297       1.62       1.37       0.16
   167     1  25640       1.62       1.37       0.16
   168     1  25982       1.62       1.37       0.16
   169     1  26322       1.62       1.36       0.16
   170     1  26665       1.62       1.36       0.16
   171     1  27006       1.62       1.36       0.16
   172     1  27349       1.62       1.36       0.16
   173     1  27702       1.62       1.36       0.16
   174     1  28058       1.62       1.36       0.16
   175     1  28419       1.62       1.36       0.16
   176     1  28786       1.62       1.37       0.16
   177     1  29153       1.62       1.37       0.16
   178     1  29522       1.62       1.37       0.16
   179     1  29900       1.62       1.37       0.15
   180     1  30284       1.62       1.37       0.15
   181     1  30667       1.62       1.37       0.15
   182     1  31052       1.62       1.38       0.15
   183     1  31442       1.62       1.38       0.15
   184     1  31834       1.62       1.38       0.15
   185     1  32229       1.62       1.39       0.14
   186     1  32622       1.62       1.39       0.14
   187     1  33016       1.62       1.40       0.14
   188     1  33407       1.62       1.40       0.13
   189     1  33802       1.62       1.41       0.13
   190     1  34197       1.62       1.42       0.12
   191     1  34592       1.62       1.43       0.12
   192     1  34988       1.62       1.44       0.11

 
    
 STOP
